216

 Ar      -38.12529      -61.66032      -75.25083
 Ar      -64.66737      -47.63844      -66.76592
 Ar      -63.34149      -33.33483      -49.29778
 Ar      -94.91537      -35.81159      -65.33939
 Ar      -68.48146      -10.95349      -66.65586
 Ar       19.14618      -91.87143       -9.57546
 Ar      -56.39505      -52.39804      -93.36247
 Ar      -17.12565      -67.03273      -80.70765
 Ar      -30.32715      -60.86288      -40.55408
 Ar      -71.14298      -58.03760      -36.94842
 Ar       -4.03117      -63.80639      -12.27151
 Ar      -86.30159      -67.28752        2.48263
 Ar      -59.93877      -66.44104       -8.11170
 Ar      -40.10928      -70.38020      -12.95325
 Ar      -59.46550      -65.23678      -19.20531
 Ar      -65.60809        2.86833      -17.69717
 Ar      -20.49749      -70.96834       74.27944
 Ar      -94.36045      -72.84715       29.11946
 Ar      -68.12934      -34.03852       70.74727
 Ar      -81.69926      -66.69893       57.47554
 Ar      -49.65181      -62.28557       37.09548
 Ar      -27.16424      -78.52653       50.71067
 Ar      -63.77276      -32.57707       23.09350
 Ar      -50.92232      -67.90701       43.39295
 Ar      -35.61932       37.37312      -64.05262
 Ar      -68.28411      -13.01843      -90.61784
 Ar      -95.09244       41.97064      -37.77193
 Ar      -55.62476       18.31153      -40.07711
 Ar      -53.04077       -7.48374      -23.65226
 Ar      -59.84177       -8.15336       -8.61963
 Ar      -45.94965       -8.58392      -60.62593
 Ar       -4.03458       19.93890      -59.51939
 Ar      -49.06577        4.18760       -2.47757
 Ar      -60.86351       27.66792       -8.27668
 Ar      -94.78061      -13.53566      -10.93568
 Ar      -77.97570       -0.59121       78.70190
 Ar      -64.29264      -20.37070       68.90920
 Ar      -66.60442      -18.50146       -7.42317
 Ar       -7.56893       13.78257       -7.22276
 Ar      -35.88252        8.94682       16.34727
 Ar      -85.18393      -19.33278       70.44796
 Ar      -93.13108      -39.60961       15.36843
 Ar      -61.51142        0.05377       41.15403
 Ar      -39.72126       22.78150       74.06649
 Ar      -67.72074      -17.08627       43.79742
 Ar       -9.93669      -37.52660       70.27611
 Ar       -6.48129       51.46975       14.52964
 Ar      -53.76136       50.44791       21.77515
 Ar      -75.90568       34.03267      -65.50943
 Ar      -69.56464       20.87375      -69.29996
 Ar      -67.91221       60.21775       12.10100
 Ar      -60.73283       69.57965      -54.72623
 Ar      -37.55693       41.42055      -33.36466
 Ar      -57.16263       48.79467       -1.25541
 Ar      -56.82598       73.69764      -16.33143
 Ar      -48.65829       56.58005      -78.45078
 Ar      -71.75707       13.43804      -28.93352
 Ar      -65.23469       46.31994       -8.68302
 Ar      -62.43651      119.31174        4.41262
 Ar      -68.76557       41.77702       -1.18889
 Ar      -40.20730       37.87361        6.56433
 Ar      -33.68477       15.84958      -12.93626
 Ar      -36.22383       73.59636       22.24457
 Ar      -66.22518       49.78140      -11.72915
 Ar      -10.12659       44.19432       17.30611
 Ar       -1.20866       28.30836       28.99363
 Ar      -53.38878       75.67383       47.75125
 Ar      -83.43664       57.73332       71.81393
 Ar      -56.38780       91.55065       71.90109
 Ar      -58.05266       34.41762      135.73949
 Ar      -35.65158       56.30673       95.09005
 Ar      -47.89161       53.22492       44.57466
 Ar      -28.31097      -77.29033      -63.12364
 Ar      -23.96430      -22.09021      -37.20817
 Ar      -36.28783      -34.17508      -31.17883
 Ar      -20.26532       30.39788      -32.65346
 Ar       19.20256      -93.12242      -31.91006
 Ar       16.00861      -75.00198      -49.28508
 Ar       24.98298      -64.18544      -33.73548
 Ar      -14.08388      -34.00140      -35.67546
 Ar       36.87218      -88.77408      -32.57732
 Ar      -17.29913      -63.21550      -39.45313
 Ar       -8.22370      -37.86918       20.26122
 Ar        2.44217      -65.50481       26.33499
 Ar       -6.51537      -71.54175       20.21073
 Ar       19.49039      -77.70139       25.00000
 Ar       -8.71551      -67.28954      -19.62526
 Ar       26.06333      -39.23551       18.95569
 Ar      -27.98128      -81.06197       14.04630
 Ar      -32.97230      -62.82557       25.15653
 Ar       -8.25738      -61.78133       71.86982
 Ar       17.17560      -54.61640       59.63046
 Ar        8.84933      -81.88693       65.01453
 Ar       20.80831      -61.00143       64.77410
 Ar       18.34044      -38.72315       45.49451
 Ar      -13.67429      -11.85273       15.41555
 Ar      -26.35476      -35.72310      -34.91730
 Ar       16.13606       -9.15018      -62.17937
 Ar      -41.22830        9.28928      -29.49999
 Ar      -13.09708       -7.17968        5.64907
 Ar        1.21736      -37.08974      -50.54200
 Ar       68.53720      -38.34859      -62.73672
 Ar       32.22884      -11.59566      -89.10333
 Ar       14.09709       22.33057      -93.33277
 Ar      -11.29009      -27.16128       -7.67919
 Ar      -36.89611      -31.70437       25.07860
 Ar      -31.06273       27.61107        9.83863
 Ar      -37.30793       44.94914       -8.36332
 Ar       16.78295       -8.18772       20.11290
 Ar       11.11960       46.75151       -8.31584
 Ar       35.34134       44.93227        4.16977
 Ar       -8.21402       -3.49095       -5.79373
 Ar      -41.55850      -39.59854       20.16503
 Ar      -36.82349      -37.43044       20.53583
 Ar      -24.46599       26.49265       73.92446
 Ar       14.26312       -4.67667      117.50135
 Ar       17.44460       38.12002       43.53152
 Ar       -9.76374      -28.81952       78.39339
 Ar       18.19397        4.67334      104.00404
 Ar       -5.74688      -13.66085       29.85928
 Ar       -9.05497       29.71991      -45.27105
 Ar      -21.14825       31.06343      -71.43594
 Ar      -13.18356      102.30922      -40.28315
 Ar      -28.78053       70.74850        9.20244
 Ar       27.54438       17.10843      -21.29544
 Ar       19.48894       24.56617      -65.02840
 Ar        1.68711      108.49691      -61.93222
 Ar       -6.69344       45.26729      -27.82518
 Ar       -7.68306       35.97330      -27.67499
 Ar      -18.66083       85.28722       -5.96746
 Ar      -13.95172       42.54397       47.59996
 Ar      -32.16070       73.13555        2.39974
 Ar      -14.87577       16.81465       19.90930
 Ar        0.18221       38.67028       82.76967
 Ar       27.46060       51.52153      -23.93542
 Ar       10.26853       68.62479      -33.66657
 Ar      -37.36590       32.65011       28.58324
 Ar      -37.75657       14.19175       33.46937
 Ar      -14.15055       73.71048       46.43133
 Ar       -6.97772       70.42288       55.90496
 Ar       39.05371       39.47674       67.76257
 Ar      -13.89776       72.91030       41.90001
 Ar       17.78249       42.18547       47.51533
 Ar       19.20561       61.86596       55.64905
 Ar       79.30518      -60.78788      -60.89228
 Ar       46.73841      -72.49145      -61.32531
 Ar      113.55521        1.10529      -43.24521
 Ar       45.18228      -22.73160      -39.35062
 Ar       65.69812      -80.87304      -19.57332
 Ar       73.58250      -41.99423      -42.85803
 Ar       92.58637      -61.78619      -81.15447
 Ar       45.13934      -64.71640      -68.34991
 Ar       70.44486      -98.23502       -8.72132
 Ar       43.32682      -84.18677      -39.17422
 Ar       23.61408      -50.26259      -13.74856
 Ar       15.66395      -36.46969       15.01626
 Ar       71.57301      -86.26241      -12.82348
 Ar       41.74076      -80.55683      -12.03753
 Ar       72.34692      -34.90388      -32.39013
 Ar       72.81484      -29.32593      -10.81840
 Ar       40.24812      -81.72874       13.85592
 Ar       78.01686      -68.86561       40.38917
 Ar       45.97035      -65.65104       44.93396
 Ar       49.35750      -58.81579       71.95788
 Ar       50.35718      -44.78527       75.38235
 Ar       68.18521      -62.47328       91.03171
 Ar       77.88736      -10.08038       -2.52336
 Ar       45.73772      -36.20179       13.86427
 Ar       13.11200      -33.80570      -62.04497
 Ar       76.57937      -26.72396      -48.06196
 Ar       43.17512       17.48450       -2.80760
 Ar       59.00331       19.87850        5.79838
 Ar       60.96368       -6.58915      -41.10333
 Ar       73.41111       44.67039      -65.42765
 Ar       41.58136      -10.24599      -62.03783
 Ar       80.63387       -5.84861      -59.73160
 Ar       61.96580       -6.76732      -35.47078
 Ar       29.66714       -6.70233        3.00233
 Ar       61.92888       57.79793       -6.76923
 Ar       22.32294       -0.08658       44.02582
 Ar       69.58546      -21.12241       21.41344
 Ar       89.35422      -39.77320       64.33574
 Ar       41.12342       55.13010      -39.68558
 Ar       78.54829       26.33267       -0.90977
 Ar       70.76185      -30.84769       31.80684
 Ar       89.76204      -13.84667       22.17504
 Ar       44.16871       37.70893       41.91048
 Ar       17.69098       20.36791       73.13777
 Ar       36.68275       42.96842       42.99247
 Ar       61.26795       18.52933       70.18122
 Ar       68.17975       52.08721       43.97311
 Ar       63.96284       28.16089       19.99202
 Ar       63.62918       42.75253      -89.67429
 Ar       44.49741       66.98048      -90.50922
 Ar       22.30756       73.36045      -38.69813
 Ar       48.58500       68.90562      -33.15761
 Ar       52.52396       14.75582      -60.15501
 Ar       48.14148       38.23813      -37.83707
 Ar       72.60184       54.25623      -94.14208
 Ar       93.96972       73.84339      -90.65362
 Ar       61.55251       45.71368      -36.63157
 Ar       14.29120       14.60726       33.64711
 Ar       82.19970       65.48832       29.45608
 Ar       13.75360       51.58093      -12.07561
 Ar       53.75914       20.16822       17.17257
 Ar       44.65866       37.86718       -8.71074
 Ar       38.92402       64.36511      -22.26450
 Ar       66.34141       42.52266      -34.17383
 Ar       23.55619       41.38268       40.67957
 Ar       11.51996       21.81969       54.56961
 Ar       25.54029      106.50092       45.60240
 Ar       36.63820       70.85383      107.98261
 Ar       76.12815       57.12753       40.27868
 Ar      125.26874       52.25901       55.61285
 Ar       39.29417       70.18471       17.55448
 Ar       98.23813       70.58339       43.28241
