16

 Ar      -26.56389      -26.56389      -26.56389
 Ar       -8.85463       -8.85463       -8.85463
 Ar      -26.56389      -26.56389        8.85463
 Ar       -8.85463       -8.85463       26.56389
 Ar      -26.56389        8.85463      -26.56389
 Ar       -8.85463       26.56389       -8.85463
 Ar      -26.56389        8.85463        8.85463
 Ar       -8.85463       26.56389       26.56389
 Ar        8.85463      -26.56389      -26.56389
 Ar       26.56389       -8.85463       -8.85463
 Ar        8.85463      -26.56389        8.85463
 Ar       26.56389       -8.85463       26.56389
 Ar        8.85463        8.85463      -26.56389
 Ar       26.56389       26.56389       -8.85463
 Ar        8.85463        8.85463        8.85463
 Ar       26.56389       26.56389       26.56389
